Version 4
SHEET 1 1284 680
WIRE 624 -528 48 -528
WIRE 1040 -528 624 -528
WIRE 672 -416 560 -416
WIRE 624 -336 624 -528
WIRE 560 -320 560 -416
WIRE 592 -320 560 -320
WIRE 672 -304 672 -416
WIRE 672 -304 656 -304
WIRE 688 -304 672 -304
WIRE 848 -304 768 -304
WIRE 880 -304 848 -304
WIRE 1104 -304 960 -304
WIRE 48 -288 48 -528
WIRE 96 -288 48 -288
WIRE 224 -288 176 -288
WIRE 592 -288 224 -288
WIRE 224 -256 224 -288
WIRE 624 -176 624 -272
WIRE 624 -176 448 -176
WIRE 224 -144 224 -176
WIRE 1040 -128 1040 -528
WIRE 1040 -128 976 -128
WIRE 720 -112 560 -112
WIRE 976 -80 976 -128
WIRE 48 -64 48 -288
WIRE 624 -64 48 -64
WIRE 848 -64 848 -304
WIRE 944 -64 848 -64
WIRE 1104 -48 1104 -304
WIRE 1104 -48 1008 -48
WIRE 1280 -48 1104 -48
WIRE 944 -32 912 -32
WIRE 624 0 624 -64
WIRE 560 16 560 -112
WIRE 592 16 560 16
WIRE 720 32 720 -112
WIRE 720 32 656 32
WIRE 768 32 720 32
WIRE 912 32 912 -32
WIRE 912 32 848 32
WIRE 592 48 224 48
WIRE 912 112 912 32
WIRE 48 128 48 -64
WIRE 224 128 224 48
WIRE 624 256 624 64
WIRE 912 256 912 192
WIRE 912 256 624 256
WIRE 912 288 912 256
WIRE 48 304 48 208
WIRE 224 304 224 208
WIRE 224 304 48 304
WIRE 448 304 448 -176
WIRE 448 304 224 304
WIRE 624 304 624 256
WIRE 624 304 448 304
WIRE 624 352 624 304
WIRE 976 352 976 -16
WIRE 976 352 624 352
FLAG 224 -144 0
FLAG 912 288 0
SYMBOL voltage 48 112 R0
WINDOW 123 0 0 Left 0
WINDOW 39 0 0 Left 0
SYMATTR InstName V1
SYMATTR Value 5
SYMBOL voltage 224 112 R0
WINDOW 123 0 0 Left 0
WINDOW 39 0 0 Left 0
SYMATTR InstName V2
SYMATTR Value SINE(2.25 2.25 10)
SYMBOL res 208 -272 R0
SYMATTR InstName R1
SYMATTR Value 15k
SYMBOL res 192 -304 R90
WINDOW 0 0 56 VBottom 2
WINDOW 3 32 56 VTop 2
SYMATTR InstName R2
SYMATTR Value 47k
SYMBOL res 864 16 R90
WINDOW 0 0 56 VBottom 2
WINDOW 3 32 56 VTop 2
SYMATTR InstName R3
SYMATTR Value 10k
SYMBOL res 928 208 R180
WINDOW 0 36 76 Left 2
WINDOW 3 36 40 Left 2
SYMATTR InstName R4
SYMATTR Value 10k
SYMBOL res 784 -320 R90
WINDOW 0 0 56 VBottom 2
WINDOW 3 32 56 VTop 2
SYMATTR InstName R5
SYMATTR Value 10k
SYMBOL res 976 -320 R90
WINDOW 0 0 56 VBottom 2
WINDOW 3 32 56 VTop 2
SYMATTR InstName R6
SYMATTR Value 10k
SYMBOL OpAmps\\LT1498 624 -368 R0
SYMATTR InstName U1
SYMBOL OpAmps\\LT1498 624 -32 R0
SYMATTR InstName U2
SYMBOL OpAmps\\LT1498 976 -112 R0
SYMATTR InstName U3
TEXT 16 360 Left 2 !.tran 1
